<?xml version="1.0" encoding="UTF-8"?>

<!-- generated on 2023-06-21 16:00:07 by Eclipse SUMO netedit Version 1.17.0
<configuration xmlns:xsi="http://www.w3.org/2001/XMLSchema-instance" xsi:noNamespaceSchemaLocation="http://sumo.dlr.de/xsd/netconvertConfiguration.xsd">

    <input>
        <sumocfg-file value="/home/kuriatsu/Source/despot-ras/examples/cpp_models/ras/straight_random.sumocfg"/>
        <additional-files value=""/>
        <route-files value="/home/kuriatsu/Source/despot-ras/examples/cpp_models/ras/straight_ped.rou.xml"/>
        <sumo-net-file value="/home/kuriatsu/Source/despot-ras/examples/cpp_models/ras/straight.net.xml"/>
    </input>

    <output>
        <output-file value="/home/kuriatsu/Source/despot-ras/examples/cpp_models/ras/straight.net.xml"/>
    </output>

    <processing>
        <geometry.min-radius.fix.railways value="false"/>
        <geometry.max-grade.fix value="false"/>
        <offset.disable-normalization value="true"/>
        <lefthand value="0"/>
    </processing>

    <junctions>
        <no-internal-links value="true"/>
        <no-turnarounds value="true"/>
        <junctions.corner-detail value="5"/>
        <junctions.limit-turn-speed value="5.50"/>
        <rectangular-lane-cut value="0"/>
    </junctions>

    <pedestrian>
        <walkingareas value="0"/>
    </pedestrian>

</configuration>
-->

<net version="1.16" junctionCornerDetail="5" limitTurnSpeed="5.50" xmlns:xsi="http://www.w3.org/2001/XMLSchema-instance" xsi:noNamespaceSchemaLocation="http://sumo.dlr.de/xsd/net_file.xsd">

    <location netOffset="0.00,0.00" convBoundary="0.00,0.00,500.00,0.00" origBoundary="-10000000000.00,-10000000000.00,10000000000.00,10000000000.00" projParameter="!"/>

    <edge id="-E0" from="J1" to="J0" priority="-1">
        <lane id="-E0_0" index="0" allow="pedestrian" speed="13.89" length="500.00" width="2.00" shape="500.00,4.20 0.00,4.20"/>
        <lane id="-E0_1" index="1" allow="private emergency passenger taxi bus coach delivery truck trailer motorcycle moped bicycle" speed="13.89" length="500.00" shape="500.00,1.60 0.00,1.60"/>
    </edge>
    <edge id="E0" from="J0" to="J1" priority="-1">
        <lane id="E0_0" index="0" allow="pedestrian" speed="13.89" length="500.00" width="2.00" shape="0.00,-4.20 500.00,-4.20"/>
        <lane id="E0_1" index="1" allow="private emergency passenger taxi bus coach delivery truck trailer motorcycle moped bicycle" speed="13.89" length="500.00" shape="0.00,-1.60 500.00,-1.60"/>
    </edge>

    <junction id="J0" type="dead_end" x="0.00" y="0.00" incLanes="-E0_0 -E0_1" intLanes="" shape="0.00,0.00 0.00,5.20 0.00,0.00"/>
    <junction id="J1" type="dead_end" x="500.00" y="0.00" incLanes="E0_0 E0_1" intLanes="" shape="500.00,0.00 500.00,-5.20 500.00,0.00"/>

</net>
