<?xml version="1.0" encoding="UTF-8"?>
<routes xmlns:xsi="http://www.w3.org/2001/XMLSchema-instance" xsi:noNamespaceSchemaLocation="http://sumo.dlr.de/xsd/routes_file.xsd">
    <vehicle id="1" depart="1.00">
        <route edges="-E0"/>
    </vehicle>
    <vehicle id="2" depart="2.00">
        <route edges="E0"/>
    </vehicle>
    <vehicle id="4" depart="4.00">
        <route edges="-E0"/>
    </vehicle>
    <vehicle id="6" depart="6.00">
        <route edges="-E0"/>
    </vehicle>
    <vehicle id="7" depart="7.00">
        <route edges="E0"/>
    </vehicle>
    <vehicle id="10" depart="10.00">
        <route edges="E0"/>
    </vehicle>
    <vehicle id="11" depart="11.00">
        <route edges="-E0"/>
    </vehicle>
    <vehicle id="13" depart="13.00">
        <route edges="-E0"/>
    </vehicle>
    <vehicle id="14" depart="14.00">
        <route edges="E0"/>
    </vehicle>
    <vehicle id="15" depart="15.00">
        <route edges="E0"/>
    </vehicle>
    <vehicle id="16" depart="16.00">
        <route edges="E0"/>
    </vehicle>
    <vehicle id="18" depart="18.00">
        <route edges="E0"/>
    </vehicle>
    <vehicle id="19" depart="19.00">
        <route edges="E0"/>
    </vehicle>
    <vehicle id="21" depart="21.00">
        <route edges="-E0"/>
    </vehicle>
    <vehicle id="22" depart="22.00">
        <route edges="-E0"/>
    </vehicle>
    <vehicle id="23" depart="23.00">
        <route edges="-E0"/>
    </vehicle>
    <vehicle id="25" depart="25.00">
        <route edges="-E0"/>
    </vehicle>
    <vehicle id="27" depart="27.00">
        <route edges="E0"/>
    </vehicle>
    <vehicle id="29" depart="29.00">
        <route edges="-E0"/>
    </vehicle>
    <vehicle id="30" depart="30.00">
        <route edges="E0"/>
    </vehicle>
    <vehicle id="31" depart="31.00">
        <route edges="E0"/>
    </vehicle>
    <vehicle id="32" depart="32.00">
        <route edges="E0"/>
    </vehicle>
    <vehicle id="33" depart="33.00">
        <route edges="-E0"/>
    </vehicle>
    <vehicle id="34" depart="34.00">
        <route edges="-E0"/>
    </vehicle>
    <vehicle id="39" depart="39.00">
        <route edges="-E0"/>
    </vehicle>
    <vehicle id="41" depart="41.00">
        <route edges="E0"/>
    </vehicle>
    <vehicle id="42" depart="42.00">
        <route edges="-E0"/>
    </vehicle>
    <vehicle id="43" depart="43.00">
        <route edges="E0"/>
    </vehicle>
    <vehicle id="44" depart="44.00">
        <route edges="-E0"/>
    </vehicle>
    <vehicle id="47" depart="47.00">
        <route edges="-E0"/>
    </vehicle>
    <vehicle id="48" depart="48.00">
        <route edges="E0"/>
    </vehicle>
    <vehicle id="49" depart="49.00">
        <route edges="E0"/>
    </vehicle>
    <vehicle id="51" depart="51.00">
        <route edges="E0"/>
    </vehicle>
    <vehicle id="53" depart="53.00">
        <route edges="-E0"/>
    </vehicle>
    <vehicle id="57" depart="57.00">
        <route edges="E0"/>
    </vehicle>
    <vehicle id="60" depart="60.00">
        <route edges="E0"/>
    </vehicle>
    <vehicle id="61" depart="61.00">
        <route edges="E0"/>
    </vehicle>
    <vehicle id="62" depart="62.00">
        <route edges="-E0"/>
    </vehicle>
    <vehicle id="64" depart="64.00">
        <route edges="E0"/>
    </vehicle>
    <vehicle id="65" depart="65.00">
        <route edges="-E0"/>
    </vehicle>
    <vehicle id="66" depart="66.00">
        <route edges="E0"/>
    </vehicle>
    <vehicle id="67" depart="67.00">
        <route edges="-E0"/>
    </vehicle>
    <vehicle id="72" depart="72.00">
        <route edges="-E0"/>
    </vehicle>
    <vehicle id="73" depart="73.00">
        <route edges="E0"/>
    </vehicle>
    <vehicle id="74" depart="74.00">
        <route edges="-E0"/>
    </vehicle>
    <vehicle id="75" depart="75.00">
        <route edges="E0"/>
    </vehicle>
    <vehicle id="77" depart="77.00">
        <route edges="-E0"/>
    </vehicle>
    <vehicle id="79" depart="79.00">
        <route edges="-E0"/>
    </vehicle>
    <vehicle id="84" depart="84.00">
        <route edges="-E0"/>
    </vehicle>
    <vehicle id="85" depart="85.00">
        <route edges="E0"/>
    </vehicle>
    <vehicle id="88" depart="88.00">
        <route edges="-E0"/>
    </vehicle>
    <vehicle id="89" depart="89.00">
        <route edges="-E0"/>
    </vehicle>
    <vehicle id="90" depart="90.00">
        <route edges="E0"/>
    </vehicle>
    <vehicle id="92" depart="92.00">
        <route edges="-E0"/>
    </vehicle>
    <vehicle id="94" depart="94.00">
        <route edges="-E0"/>
    </vehicle>
    <vehicle id="95" depart="95.00">
        <route edges="-E0"/>
    </vehicle>
    <vehicle id="99" depart="99.00">
        <route edges="E0"/>
    </vehicle>
    <vehicle id="100" depart="100.00">
        <route edges="E0"/>
    </vehicle>
    <vehicle id="102" depart="102.00">
        <route edges="-E0"/>
    </vehicle>
    <vehicle id="103" depart="103.00">
        <route edges="-E0"/>
    </vehicle>
    <vehicle id="106" depart="106.00">
        <route edges="-E0"/>
    </vehicle>
    <vehicle id="107" depart="107.00">
        <route edges="E0"/>
    </vehicle>
    <vehicle id="108" depart="108.00">
        <route edges="E0"/>
    </vehicle>
    <vehicle id="109" depart="109.00">
        <route edges="-E0"/>
    </vehicle>
    <vehicle id="110" depart="110.00">
        <route edges="E0"/>
    </vehicle>
    <vehicle id="111" depart="111.00">
        <route edges="E0"/>
    </vehicle>
    <vehicle id="113" depart="113.00">
        <route edges="E0"/>
    </vehicle>
    <vehicle id="115" depart="115.00">
        <route edges="-E0"/>
    </vehicle>
    <vehicle id="116" depart="116.00">
        <route edges="E0"/>
    </vehicle>
    <vehicle id="117" depart="117.00">
        <route edges="-E0"/>
    </vehicle>
    <vehicle id="119" depart="119.00">
        <route edges="E0"/>
    </vehicle>
    <vehicle id="121" depart="121.00">
        <route edges="E0"/>
    </vehicle>
    <vehicle id="123" depart="123.00">
        <route edges="-E0"/>
    </vehicle>
    <vehicle id="126" depart="126.00">
        <route edges="-E0"/>
    </vehicle>
    <vehicle id="127" depart="127.00">
        <route edges="E0"/>
    </vehicle>
    <vehicle id="128" depart="128.00">
        <route edges="-E0"/>
    </vehicle>
    <vehicle id="130" depart="130.00">
        <route edges="E0"/>
    </vehicle>
    <vehicle id="131" depart="131.00">
        <route edges="-E0"/>
    </vehicle>
    <vehicle id="132" depart="132.00">
        <route edges="E0"/>
    </vehicle>
    <vehicle id="133" depart="133.00">
        <route edges="E0"/>
    </vehicle>
    <vehicle id="136" depart="136.00">
        <route edges="E0"/>
    </vehicle>
    <vehicle id="137" depart="137.00">
        <route edges="-E0"/>
    </vehicle>
    <vehicle id="144" depart="144.00">
        <route edges="-E0"/>
    </vehicle>
    <vehicle id="147" depart="147.00">
        <route edges="E0"/>
    </vehicle>
    <vehicle id="148" depart="148.00">
        <route edges="-E0"/>
    </vehicle>
    <vehicle id="150" depart="150.00">
        <route edges="E0"/>
    </vehicle>
    <vehicle id="151" depart="151.00">
        <route edges="E0"/>
    </vehicle>
    <vehicle id="152" depart="152.00">
        <route edges="-E0"/>
    </vehicle>
    <vehicle id="154" depart="154.00">
        <route edges="E0"/>
    </vehicle>
    <vehicle id="156" depart="156.00">
        <route edges="-E0"/>
    </vehicle>
    <vehicle id="157" depart="157.00">
        <route edges="E0"/>
    </vehicle>
    <vehicle id="160" depart="160.00">
        <route edges="E0"/>
    </vehicle>
    <vehicle id="161" depart="161.00">
        <route edges="E0"/>
    </vehicle>
    <vehicle id="164" depart="164.00">
        <route edges="E0"/>
    </vehicle>
    <vehicle id="167" depart="167.00">
        <route edges="E0"/>
    </vehicle>
    <vehicle id="169" depart="169.00">
        <route edges="-E0"/>
    </vehicle>
    <vehicle id="171" depart="171.00">
        <route edges="-E0"/>
    </vehicle>
    <vehicle id="175" depart="175.00">
        <route edges="E0"/>
    </vehicle>
    <vehicle id="179" depart="179.00">
        <route edges="-E0"/>
    </vehicle>
    <vehicle id="181" depart="181.00">
        <route edges="E0"/>
    </vehicle>
    <vehicle id="185" depart="185.00">
        <route edges="E0"/>
    </vehicle>
    <vehicle id="186" depart="186.00">
        <route edges="E0"/>
    </vehicle>
    <vehicle id="187" depart="187.00">
        <route edges="-E0"/>
    </vehicle>
    <vehicle id="191" depart="191.00">
        <route edges="-E0"/>
    </vehicle>
    <vehicle id="192" depart="192.00">
        <route edges="-E0"/>
    </vehicle>
    <vehicle id="193" depart="193.00">
        <route edges="-E0"/>
    </vehicle>
    <vehicle id="194" depart="194.00">
        <route edges="E0"/>
    </vehicle>
    <vehicle id="195" depart="195.00">
        <route edges="E0"/>
    </vehicle>
    <vehicle id="197" depart="197.00">
        <route edges="-E0"/>
    </vehicle>
</routes>
