<?xml version="1.0" encoding="UTF-8"?>
<routes xmlns:xsi="http://www.w3.org/2001/XMLSchema-instance" xsi:noNamespaceSchemaLocation="http://sumo.dlr.de/xsd/routes_file.xsd">
    <vType accel="2.0" decel="2.0" id="modelate" length="3.0" maxSpeed="20.0"/>
    <vType accel="5.0" decel="5.0" id="aggressive" length="3.0" maxSpeed="50.0"/>
    <route id="route1" edges="E0"/>
    <vehicle depart="1.0" id="aggressive_vehicle" route="route1" type="aggressive" color="200,0,0"/>
    <vehicle depart="3.0" id="modelate_vehicle" route="route1" type="modelate" color="0,200,0"/>
    <!--<vehicle id="1" depart="1.00">
        <route edges="-E0"/>
    </vehicle>-->
</routes>
